[TITLE]


[JUNCTIONS]
;ID              	Elev        	Demand      	Pattern         
 路口1             	285.717     	0           	                	;
 太平窩3-1號         	285.717     	2           	                	;
 路口2             	278.202     	1           	                	;
 太平窩3號           	278.673     	1           	                	;
 路口3             	271.614     	0           	                	;
 太平窩3號(2)        	275.504     	1           	                	;
 大平窩5號           	256.310     	1           	                	;
 土地公             	249.419     	0           	                	;
 太平窩12號          	245.851     	1           	                	;
 路口5             	240.221     	0           	                	;
 太平窩12號(2)       	227.839     	2           	                	;
 太平窩12-1號        	237.892     	1           	                	;
 太平窩8、9號         	228.799     	2           	                	;
 太平窩10號          	223.226     	1           	                	;
 太平窩15-1號        	217.632     	1           	                	;
 路口6             	213.263     	0           	                	;
 太平窩15號          	206.606     	1           	                	;
 太平窩16號          	202.565     	1           	                	;
 太平窩15號(2)       	200.283     	1           	                	;
 路口7             	202.876     	0           	                	;
 太平窩18號          	199.967     	2           	                	;
 太平窩17-1號        	188.684     	1           	                	;
 太平窩19號          	170.590     	1           	                	;
 太平窩20號、橋頭       	168.311     	1           	                	;
 太平窩19-8號        	172.951     	1           	                	;
 太平窩23-3號        	171.290     	1           	                	;
 太平窩23-2號        	169.988     	1           	                	;
 大平窩29-1號        	165.106     	1           	                	;
 2鄰太平窩16號        	165.832     	1           	                	;
 2鄰太平窩27號        	163.919     	1           	                	;
 太平窩29號          	162.209     	1           	                	;
 太平窩29號(2)       	162.200     	2           	                	;
 3鄰太平窩25號        	176.202     	1           	                	;
 太平窩38號          	153.736     	1           	                	;
 路口9             	151.992     	0           	                	;
 太平窩32、-1號       	151.779     	2           	                	;
 路口10            	146.283     	0           	                	;
 太平窩34-1號        	151.795     	1           	                	;
 路口11            	141.232     	0           	                	;
 太平窩37號          	155.636     	1           	                	;
 路口13            	138.165     	0           	                	;
 太平窩43、43-1、-2號  	139.661     	3           	                	;
 38-7號           	139.582     	1           	                	;
 路口12            	141.227     	0           	                	;
 4鄰太平窩38號        	148.412     	1           	                	;
 太平窩39，41號       	151.661     	2           	                	;
 路口14            	134.886     	0           	                	;
 6鄰太平窩47-1號      	131.010     	1           	                	;
 5鄰太平窩50號        	124.706     	1           	                	;
 6鄰太平窩59-1號      	123.366     	1           	                	;
 太平窩49、50號       	137.918     	3           	                	;
 太平窩1號           	301.508     	1           	                	;
 變電站路口           	167.834     	3           	                	;
 變電站             	202.679     	1           	                	;
 路口              	298.321     	0           	                	;
 54              	301.652     	0           	                	;
 55              	302.970     	0           	                	;
 3鄰14號           	285.717     	0           	                	;
 減壓池路口           	171.290     	0           	                	;
 40號             	148.873     	1           	                	;
 水池加壓1           	174         	0           	                	;
 配水池2加壓          	239.2       	0           	                	;
 減壓池前            	171.290     	0           	                	;
 1               	309         	0           	                	;
 4               	309         	0           	                	;
 6               	200         	0           	                	;
 7               	200         	0           	                	;
 8               	158         	0           	                	;
 9               	158         	0           	                	;
 2               	264         	0           	                	;
 3               	264         	0           	                	;
 11              	285.7       	0           	                	;
 12              	285.7       	0           	                	;
 13              	228         	0           	                	;
 14              	228         	0           	                	;
 大平窩22-1、23號     	167         	2           	                	;

[RESERVOIRS]
;ID              	Head        	Pattern         
 祥喜1加壓站          	192         	                	;

[TANKS]
;ID              	Elevation   	InitLevel   	MinLevel    	MaxLevel    	Diameter    	MinVol      	VolCurve        	Overflow
 配水池2            	239.2       	1           	0.5         	1.8         	50          	0           	                	;
 配水池(土地公)        	172.215     	2           	1           	3.5         	6           	0           	                	;
 配水池3            	309.067     	2.5         	1           	4.5         	10          	0           	                	;
 減壓池             	171.548     	2           	1           	3.5         	6           	0           	                	;

[PIPES]
;ID              	Node1           	Node2           	Length      	Diameter    	Roughness   	MinorLoss   	Status
 1               	路口1             	太平窩3-1號         	100         	100         	110         	0           	Open  	;
 2               	路口1             	路口2             	50          	100         	110         	0           	Open  	;
 3               	路口2             	路口3             	50          	100         	110         	0           	Open  	;
 4               	路口2             	太平窩3號           	35          	100         	110         	0           	Open  	;
 5               	路口3             	太平窩3號(2)        	55          	100         	110         	0           	Open  	;
 6               	路口3             	大平窩5號           	250         	100         	110         	0           	Closed	;
 7               	大平窩5號           	土地公             	90          	100         	110         	0           	Open  	;
 8               	土地公             	太平窩12號          	50          	100         	110         	0           	Open  	;
 9               	太平窩12號          	路口5             	50          	100         	110         	0           	Open  	;
 10              	路口5             	太平窩12-1號        	120         	100         	110         	0           	Open  	;
 11              	路口5             	太平窩12號(2)       	65          	100         	110         	0           	Open  	;
 13              	太平窩8、9號         	太平窩10號          	20          	100         	110         	0           	Closed	;
 14              	太平窩10號          	路口6             	180         	100         	110         	0           	Open  	;
 15              	路口6             	路口7             	85          	100         	110         	0           	Open  	;
 17              	路口6             	太平窩15號          	70          	100         	110         	0           	Open  	;
 18              	太平窩15號          	太平窩16號          	55          	100         	110         	0           	Open  	;
 19              	太平窩16號          	太平窩15號(2)       	22          	100         	110         	0           	Open  	;
 20              	路口7             	太平窩18號          	40          	100         	110         	0           	Open  	;
 21              	太平窩18號          	太平窩17-1號        	87          	100         	110         	0           	Open  	;
 減壓池前            	減壓池前            	太平窩20號、橋頭       	150         	100         	110         	0           	Open  	;
 24              	太平窩20號、橋頭       	太平窩19號          	32          	100         	110         	0           	Open  	;
 25              	太平窩20號、橋頭       	太平窩19-8號        	57          	100         	110         	0           	Open  	;
 26              	太平窩23-3號        	太平窩23-2號        	40          	100         	110         	0           	Open  	;
 27              	太平窩23-2號        	大平窩29-1號        	60          	100         	110         	0           	Open  	;
 28              	大平窩29-1號        	太平窩29號          	50          	100         	110         	0           	Open  	;
 29              	太平窩29號          	太平窩29號(2)       	10          	100         	110         	0           	Open  	;
 30              	大平窩29-1號        	2鄰太平窩16號        	35          	100         	110         	0           	Open  	;
 31              	2鄰太平窩16號        	2鄰太平窩27號        	35          	100         	110         	0           	Open  	;
 32              	大平窩29-1號        	路口9             	120         	100         	110         	0           	Closed	;
 線               	路口9             	太平窩32、-1號       	46          	100         	110         	0           	Open  	;
 34              	路口9             	太平窩38號          	5           	100         	110         	0           	Open  	;
 35              	路口9             	路口10            	70          	100         	110         	0           	Open  	;
 36              	路口10            	太平窩34-1號        	107         	100         	110         	0           	Open  	;
 37              	路口10            	路口11            	205         	100         	110         	0           	Open  	;
 38              	路口11            	太平窩37號          	120         	100         	110         	0           	Open  	;
 39              	路口11            	路口12            	50          	100         	110         	0           	Open  	;
 40              	路口12            	4鄰太平窩38號        	90          	100         	110         	0           	Open  	;
 41              	4鄰太平窩38號        	太平窩39，41號       	20          	100         	110         	0           	Open  	;
 太平窩38-7號        	路口12            	38-7號           	80          	100         	110         	0           	Open  	;
 43              	38-7號           	路口13            	145         	100         	110         	0           	Open  	;
 44              	路口13            	太平窩43、43-1、-2號  	46          	100         	110         	0           	Open  	;
 45              	路口13            	路口14            	150         	100         	110         	0           	Open  	;
 46              	路口14            	太平窩49、50號       	250         	100         	110         	0           	Open  	;
 47              	路口14            	6鄰太平窩47-1號      	47          	100         	110         	0           	Open  	;
 48              	6鄰太平窩47-1號      	5鄰太平窩50號        	75          	100         	110         	0           	Open  	;
 49              	5鄰太平窩50號        	6鄰太平窩59-1號      	100         	100         	110         	0           	Open  	;
 50              	太平窩1號           	路口1             	65          	100         	110         	0           	Closed	;
 51              	太平窩29號(2)       	3鄰太平窩25號        	370         	100         	110         	0           	Open  	;
 52              	太平窩16號          	太平窩15-1號        	97          	100         	110         	0           	Open  	;
 57              	變電站路口           	變電站             	501         	80          	110         	0           	Open  	;
 60              	路口              	54              	710         	200         	110         	0           	Open  	;
 61              	54              	55              	260         	200         	110         	0           	Open  	;
 63              	55              	3鄰14號           	300         	200         	110         	0           	Open  	;
 64              	3鄰14號           	4               	380         	200         	110         	0           	Open  	;
 65              	1               	太平窩1號           	100         	100         	110         	0           	Open  	;
 42              	路口7             	減壓池路口           	310         	100         	110         	0           	Closed	;
 62              	太平窩39，41號       	40號             	105         	100         	110         	0           	Open  	;
 67              	配水池2加壓          	路口              	1065        	200         	110         	0           	Open  	;
 68              	祥喜1加壓站          	配水池(土地公)        	1500        	200         	110         	0           	Open  	;
 69              	水池加壓1           	變電站路口           	150         	200         	110         	0           	Open  	;
 33              	減壓池路口           	減壓池前            	100         	100         	110         	0           	Open  	;
 53              	減壓池             	太平窩23-3號        	100         	100         	110         	0           	Closed	;
 59              	大平窩5號           	太平窩8、9號         	70          	100         	110         	0           	Open  	;
 12              	水池加壓1           	配水池2            	925         	200         	110         	0           	Open  	;
 22              	減壓池前            	減壓池             	30          	100         	110         	0           	Closed	;
 23              	減壓池路口           	太平窩23-3號        	1           	100         	110         	0           	Open  	;
 54              	4               	配水池3            	100         	200         	110         	0           	Open  	;
 56              	配水池3            	1               	100         	100         	110         	0           	Open  	;
 76              	路口7             	6               	10          	100         	110         	0           	Open  	;
 77              	7               	減壓池路口           	300         	100         	110         	0           	Open  	;
 78              	大平窩29-1號        	8               	60          	100         	110         	0           	Open  	;
 79              	9               	路口9             	60          	100         	110         	0           	Open  	;
 58              	路口3             	2               	125         	100         	110         	0           	Open  	;
 66              	3               	大平窩5號           	125         	100         	110         	0           	Open  	;
 73              	4               	1               	5           	100         	110         	0           	Closed	;
 74              	太平窩1號           	11              	65          	100         	110         	0           	Open  	;
 80              	12              	路口1             	1           	100         	110         	0           	Open  	;
 70              	太平窩8、9號         	13              	1           	100         	110         	0           	Open  	;
 81              	14              	太平窩10號          	1           	100         	110         	0           	Open  	;
 71              	太平窩20號、橋頭       	大平窩22-1、23號     	70          	100         	110         	0           	Open  	;

[PUMPS]
;ID              	Node1           	Node2           	Parameters
 抽水機1            	配水池(土地公)        	水池加壓1           	HEAD 1	;
 抽水機2            	配水池2            	配水池2加壓          	HEAD 2	;

[VALVES]
;ID              	Node1           	Node2           	Diameter    	Type	Setting     	MinorLoss   
 減壓閥4            	6               	7               	100         	PRV 	10          	0           	;
 75              	8               	9               	100         	PRV 	10          	0           	;
 減壓閥2            	2               	3               	100         	PRV 	10          	0           	;
 減壓閥1            	11              	12              	100         	PRV 	10          	0           	;
 減3              	13              	14              	100         	PRV 	10          	0           	;

[TAGS]

[DEMANDS]
;Junction        	Demand      	Pattern         	Category

[STATUS]
;ID              	Status/Setting

[PATTERNS]
;ID              	Multipliers

[CURVES]
;ID              	X-Value     	Y-Value
;PUMP: 
 1               	250         	70          
;PUMP: 
 2               	1000        	70          

[CONTROLS]

[RULES]

[ENERGY]
 Global Efficiency  	75
 Global Price       	0
 Demand Charge      	0

[EMITTERS]
;Junction        	Coefficient

[QUALITY]
;Node            	InitQual

[SOURCES]
;Node            	Type        	Quality     	Pattern

[REACTIONS]
;Type     	Pipe/Tank       	Coefficient


[REACTIONS]
 Order Bulk            	1
 Order Tank            	1
 Order Wall            	1
 Global Bulk           	0
 Global Wall           	0
 Limiting Potential    	0
 Roughness Correlation 	0

[MIXING]
;Tank            	Model

[TIMES]
 Duration           	0
 Hydraulic Timestep 	1:00
 Quality Timestep   	0:05
 Pattern Timestep   	1:00
 Pattern Start      	0:00
 Report Timestep    	1:00
 Report Start       	0:00
 Start ClockTime    	12 am
 Statistic          	None

[REPORT]
 Status             	No
 Summary            	No
 Page               	0

[OPTIONS]
 Units              	CMD
 Headloss           	H-W
 Specific Gravity   	1
 Viscosity          	1
 Trials             	40
 Accuracy           	0.001
 CHECKFREQ          	2
 MAXCHECK           	10
 DAMPLIMIT          	0
 Unbalanced         	Continue 10
 Pattern            	1
 Demand Multiplier  	1.0
 Emitter Exponent   	0.5
 Quality            	None mg/L
 Diffusivity        	1
 Tolerance          	0.01

[COORDINATES]
;Node            	X-Coord           	Y-Coord
路口1             	6219.755          	9717.708          
太平窩3-1號         	6792.259          	9717.596          
路口2             	6219.368          	9572.849          
太平窩3號           	6367.161          	9572.849          
路口3             	6219.368          	9435.721          
太平窩3號(2)        	6368.685          	9437.244          
大平窩5號           	5948.609          	9084.208          
土地公             	5985.218          	8968.279          
太平窩12號          	6125.553          	8827.944          
路口5             	6235.381          	8748.624          
太平窩12號(2)       	6235.222          	8522.055          
太平窩12-1號        	5914.677          	8749.710          
太平窩8、9號         	5533.704          	8480.156          
太平窩10號          	5570.314          	8303.212          
太平窩15-1號        	5832.679          	8309.313          
路口6             	5661.837          	7973.729          
太平窩15號          	5826.578          	8016.440          
太平窩16號          	6003.522          	7979.831          
太平窩15號(2)       	6070.639          	7882.206          
路口7             	5649.633          	7686.957          
太平窩18號          	5747.258          	7644.247          
太平窩17-1號        	5942.507          	7638.145          
太平窩19號          	6058.436          	7137.819          
太平窩20號、橋頭       	6058.436          	7021.890          
太平窩19-8號        	6296.396          	7101.210          
太平窩23-3號        	5741.156          	6747.321          
太平窩23-2號        	5692.344          	6613.088          
大平窩29-1號        	5509.298          	6442.245          
2鄰太平窩16號        	5320.151          	6454.448          
2鄰太平窩27號        	5106.597          	6362.925          
太平窩29號          	5619.126          	6326.316          
太平窩29號(2)       	5753.360          	6338.519          
3鄰太平窩25號        	6766.214          	6222.590          
太平窩38號          	5411.674          	6137.168          
路口9             	5314.049          	6131.067          
太平窩32、-1號       	5185.917          	6204.285          
路口10            	5082.191          	5996.833          
太平窩34-1號        	4807.622          	6228.691          
路口11            	4490.343          	5551.421          
太平窩37號          	4264.586          	5801.584          
路口13            	3874.088          	5136.517          
太平窩43、43-1、-2號  	3977.814          	4983.979          
38-7號           	4105.946          	5270.751          
路口12            	4368.312          	5356.172          
4鄰太平窩38號        	4545.256          	5228.040          
太平窩39，41號       	4606.272          	5038.893          
路口14            	3485.674          	4675.709          
6鄰太平窩47-1號      	3342.369          	4550.699          
5鄰太平窩50號        	3067.957          	4328.120          
6鄰太平窩59-1號      	2726.465          	4181.767          
太平窩49、50號       	3424.693          	4224.453          
太平窩1號           	6217.217          	10102.211         
變電站路口           	263.574           	11443.307         
變電站             	260.525           	10891.433         
路口              	7321.884          	11680.621         
54              	7326.007          	10989.011         
55              	7323.981          	9784.303          
3鄰14號           	6790.761          	9784.931          
減壓池路口           	5725.425          	6863.653          
40號             	4856.632          	4987.246          
水池加壓1           	1022.479          	11682.629         
配水池2加壓          	5843.415          	11680.370         
減壓池前            	5830.497          	6918.473          
1               	6216.102          	10643.554         
4               	6319.563          	10643.683         
6               	5517.755          	7426.485          
7               	5540.610          	7097.377          
8               	5404.514          	6379.378          
9               	5329.897          	6281.158          
2               	6041.310          	9426.069          
3               	5902.658          	9247.802          
11              	6135.423          	9993.302          
12              	6136.946          	9832.648          
13              	5460.094          	8438.604          
14              	5479.890          	8303.838          
大平窩22-1、23號     	6078.096          	6870.405          
祥喜1加壓站          	-1187.004         	11682.021         
配水池2            	5579.563          	11680.848         
配水池(土地公)        	540.068           	11680.823         
配水池3            	6217.220          	10772.972         
減壓池             	5920.741          	6810.264          

[VERTICES]
;Link            	X-Coord           	Y-Coord

[LABELS]
;X-Coord             Y-Coord             Label & Anchor Node

[BACKDROP]
  DIMENSIONS  	0.000             	0.000             	10000.000         	10000.000         
 UNITS          	None
 FILE           	
 OFFSET         	0.00            	0.00            

[END]
