[TITLE]


[JUNCTIONS]
;ID              	Elev        	Demand      	Pattern         
 1               	52          	0           	                	;
 2               	48          	0           	                	;
 3               	45          	0           	                	;
 4               	47          	0           	                	;
 5               	48          	0           	                	;
 6               	45          	0           	                	;
 7               	45          	0           	                	;
 8               	45          	0           	                	;
 9               	44          	0           	                	;
 10              	42          	0           	                	;
 11              	42          	0           	                	;
 12              	37          	0           	                	;
 13              	37          	0           	                	;
 14              	40          	0           	                	;
 15              	40          	0           	                	;
 16              	40          	227.7       	                	;
 17              	37          	0           	                	;
 18              	40          	0           	                	;
 19              	40          	0           	                	;
 20              	43          	0           	                	;
 21              	48          	0           	                	;
 22              	44          	0           	                	;
 23              	44          	0           	                	;
 24              	44          	0           	                	;
 25              	44          	0           	                	;
 26              	44          	0           	                	;
 27              	46          	0           	                	;
 28              	50          	0           	                	;
 29              	52          	0           	                	;
 30              	52          	0           	                	;
 31              	53          	0           	                	;
 32              	53          	0           	                	;
 33              	55          	0           	                	;
 34              	64          	0           	                	;
 35              	65          	0           	                	;
 36              	62          	0           	                	;
 37              	61          	4239        	                	;
 38              	71          	0           	                	;
 40              	52          	0           	                	;
 42              	45          	0           	                	;
 43              	40          	0           	                	;
 44              	40          	0           	                	;
 45              	44          	3426        	                	;
 46              	43          	0           	                	;
 47              	45          	0           	                	;
 48              	44          	0           	                	;
 49              	45          	0           	                	;
 50              	45          	477         	                	;C2小區
 51              	48          	0           	                	;
 52              	45          	0           	                	;
 53              	45          	0           	                	;
 54              	47          	0           	                	;
 55              	47          	0           	                	;
 56              	44          	0           	                	;
 57              	44          	0           	                	;
 58              	44          	0           	                	;
 59              	44          	0           	                	;
 60              	44          	0           	                	;
 61              	0           	0           	                	;
 62              	44          	0           	                	;
 63              	0           	0           	                	;
 64              	0           	0           	                	;
 65              	45          	540         	                	;C1小區
 66              	0           	0           	                	;
 67              	0           	0           	                	;
 68              	46          	0           	                	;
 69              	43          	0           	                	;
 70              	43          	0           	                	;
 71              	45          	0           	                	;
 72              	45          	0           	                	;
 73              	45          	0           	                	;
 74              	45          	0           	                	;
 75              	43          	0           	                	;
 76              	43          	0           	                	;
 77              	44          	0           	                	;
 78              	45          	0           	                	;
 79              	45          	0           	                	;
 80              	44          	0           	                	;
 81              	44          	0           	                	;
 82              	44          	0           	                	;
 83              	37          	0           	                	;
 84              	37          	0           	                	;
 85              	33          	0           	                	;
 86              	33          	0           	                	;
 87              	28          	0           	                	;
 88              	28          	0           	                	;
 89              	28          	0           	                	;
 90              	39          	0           	                	;
 91              	40          	0           	                	;
 92              	39          	258.5       	                	;
 93              	39          	227.7       	                	;
 95              	40          	440         	                	;
 96              	38          	440         	                	;
 97              	38          	227.7       	                	;
 98              	36          	227.7       	                	;
 99              	36          	258.5       	                	;
 100             	35          	258.5       	                	;
 101             	39          	440         	                	;
 102             	38          	0           	                	;
 103             	38          	637         	                	;
 104             	36          	0           	                	;
 105             	35          	637         	                	;
 106             	36          	0           	                	;
 107             	36          	0           	                	;
 108             	36          	637         	                	;
 109             	36          	152         	                	;
 110             	36          	0           	                	;
 111             	38          	0           	                	;
 112             	38          	258.5       	                	;
 113             	39          	0           	                	;
 94              	38          	0           	                	;
 114             	38          	777         	                	;
 115             	39          	0           	                	;
 116             	39          	777         	                	;
 117             	39          	0           	                	;
 119             	39          	0           	                	;
 121             	40          	440         	                	;
 122             	37          	0           	                	;
 123             	37          	0           	                	;
 124             	41          	0           	                	;
 125             	40          	0           	                	;
 126             	40          	0           	                	;
 127             	41          	0           	                	;
 128             	41          	0           	                	;
 129             	41          	0           	                	;
 130             	41          	370         	                	;
 131             	41          	0           	                	;
 132             	40          	0           	                	;
 133             	40          	0           	                	;
 134             	40          	0           	                	;
 135             	41          	0           	                	;
 136             	41          	0           	                	;
 137             	0           	0           	                	;
 138             	0           	0           	                	;
 139             	0           	0           	                	;
 140             	0           	0           	                	;
 141             	39          	0           	                	;
 142             	39          	0           	                	;
 143             	41          	0           	                	;
 144             	41          	0           	                	;
 145             	41          	0           	                	;
 146             	41          	642         	                	;
 147             	39          	0           	                	;
 148             	39          	0           	                	;
 149             	39          	0           	                	;
 150             	39          	0           	                	;
 151             	39          	0           	                	;
 152             	39          	0           	                	;
 153             	37          	0           	                	;
 154             	39          	0           	                	;
 155             	39          	0           	                	;
 156             	43          	0           	                	;
 157             	40          	0           	                	;
 158             	40          	0           	                	;
 159             	40          	0           	                	;
 160             	39          	0           	                	;
 161             	39          	0           	                	;
 162             	39          	0           	                	;
 163             	39          	0           	                	;
 164             	39          	0           	                	;
 165             	41          	0           	                	;
 166             	37          	0           	                	;
 167             	41          	0           	                	;
 168             	41          	0           	                	;
 169             	41          	0           	                	;
 170             	41          	0           	                	;
 171             	41          	0           	                	;
 172             	40          	538         	                	;
 173             	35          	0           	                	;
 174             	23          	5500        	                	;機場T3
 175             	22          	0           	                	;
 176             	23          	0           	                	;
 177             	37          	0           	                	;
 178             	29          	0           	                	;
 179             	23          	0           	                	;
 180             	26          	0           	                	;
 185             	52          	0           	                	;
 186             	51          	0           	                	;
 187             	53          	0           	                	;
 188             	48          	0           	                	;
 189             	53          	0           	                	;
 190             	49          	347         	                	;
 191             	48          	0           	                	;
 192             	48          	0           	                	;
 193             	49          	0           	                	;
 194             	48          	195         	                	;
 195             	46          	0           	                	;
 196             	47          	0           	                	;
 197             	47          	0           	                	;
 198             	48          	0           	                	;
 199             	48          	0           	                	;
 200             	48          	0           	                	;
 201             	47          	0           	                	;
 202             	46          	0           	                	;
 203             	46          	162         	                	;
 204             	46          	358         	                	;
 205             	46          	0           	                	;
 206             	46          	0           	                	;
 207             	45          	0           	                	;
 208             	48          	0           	                	;
 209             	48          	0           	                	;
 210             	48          	0           	                	;
 211             	48          	0           	                	;
 212             	48          	0           	                	;
 213             	47          	0           	                	;
 214             	47          	0           	                	;
 215             	47          	0           	                	;
 216             	37          	0           	                	;
 217             	37          	0           	                	;
 218             	29          	0           	                	;
 219             	25          	0           	                	;
 220             	25          	0           	                	;
 221             	26          	0           	                	;
 222             	23          	0           	                	;
 223             	23          	0           	                	;
 224             	22          	0           	                	;
 225             	17          	0           	                	;
 226             	23          	0           	                	;
 227             	20          	0           	                	;
 228             	20          	0           	                	;
 229             	17          	0           	                	;
 230             	22          	0           	                	;
 231             	22          	0           	                	;
 232             	22          	0           	                	;
 233             	17          	0           	                	;
 234             	17          	0           	                	;
 235             	17          	0           	                	;
 236             	17          	0           	                	;
 237             	21          	0           	                	;
 238             	21          	0           	                	;
 239             	22          	0           	                	;
 240             	17          	0           	                	;
 241             	17          	0           	                	;
 242             	17          	0           	                	;
 243             	17          	0           	                	;
 244             	21          	0           	                	;
 246             	21.5        	0           	                	;
 247             	21.5        	3011        	                	;
 248             	21.5        	0           	                	;
 249             	21.5        	1152        	                	;
 250             	22.5        	0           	                	;
 251             	22.5        	1442        	                	;
 252             	25          	0           	                	;
 253             	24          	0           	                	;
 254             	30          	0           	                	;
 255             	23          	0           	                	;
 256             	20          	2000        	                	;
 257             	20          	0           	                	;
 258             	20          	12000       	                	;
 259             	22          	213         	                	;
 260             	22          	983         	                	;
 261             	22          	0           	                	;
 262             	23          	0           	                	;
 263             	22          	0           	                	;
 264             	22          	0           	                	;
 265             	22          	0           	                	;
 266             	22          	0           	                	;
 267             	24          	0           	                	;
 268             	24          	0           	                	;
 269             	24          	0           	                	;
 270             	24          	0           	                	;
 272             	24          	0           	                	;
 273             	24          	0           	                	;
 274             	25          	0           	                	;
 275             	25          	0           	                	;
 276             	25          	0           	                	;
 277             	26          	0           	                	;
 278             	25          	0           	                	;
 279             	25          	0           	                	;
 280             	26          	0           	                	;
 281             	28          	0           	                	;
 282             	28          	0           	                	;
 283             	26          	0           	                	;
 284             	26          	0           	                	;
 285             	27          	0           	                	;
 286             	27          	0           	                	;
 287             	27          	192         	                	;
 288             	28          	0           	                	;
 291             	29          	0           	                	;
 292             	28          	0           	                	;
 294             	28          	0           	                	;
 295             	29          	0           	                	;
 296             	29          	0           	                	;
 297             	27          	0           	                	;
 298             	27          	0           	                	;
 299             	27          	0           	                	;
 300             	27          	0           	                	;
 301             	29          	192         	                	;
 302             	29          	0           	                	;
 303             	29          	0           	                	;
 304             	29          	97          	                	;
 305             	28          	0           	                	;
 306             	28          	0           	                	;
 307             	27          	0           	                	;
 308             	28          	0           	                	;
 309             	27          	0           	                	;
 310             	27          	0           	                	;
 311             	27          	0           	                	;
 312             	27          	0           	                	;
 313             	27          	0           	                	;
 314             	29          	0           	                	;
 315             	29          	175         	                	;
 316             	29          	0           	                	;
 317             	29          	0           	                	;
 318             	30          	0           	                	;
 319             	30          	0           	                	;
 320             	31          	0           	                	;
 321             	31          	0           	                	;
 322             	31          	0           	                	;
 323             	29          	0           	                	;
 324             	29          	0           	                	;
 325             	29          	0           	                	;
 326             	29          	0           	                	;
 327             	31          	0           	                	;
 328             	29          	476         	                	;
 329             	29          	514         	                	;
 333             	29          	0           	                	;
 334             	33          	0           	                	;
 335             	33          	0           	                	;
 336             	29          	0           	                	;
 337             	29          	0           	                	;
 338             	29          	0           	                	;
 339             	29          	0           	                	;
 340             	29          	0           	                	;
 341             	29          	0           	                	;
 342             	29          	0           	                	;
 343             	29          	0           	                	;
 344             	29          	0           	                	;
 345             	29          	0           	                	;
 346             	29          	0           	                	;
 347             	29          	0           	                	;
 348             	29          	0           	                	;
 349             	29          	0           	                	;
 350             	29          	0           	                	;
 351             	29          	0           	                	;
 352             	29          	0           	                	;
 353             	29          	0           	                	;
 354             	29          	0           	                	;
 355             	29          	0           	                	;
 356             	29          	0           	                	;
 357             	29          	0           	                	;
 358             	29          	0           	                	;
 359             	29          	0           	                	;
 360             	31          	0           	                	;
 361             	31          	0           	                	;
 362             	29          	0           	                	;
 363             	29          	0           	                	;
 364             	29          	0           	                	;
 365             	29          	0           	                	;
 366             	26          	0           	                	;
 367             	25          	0           	                	;
 368             	26          	0           	                	;
 369             	26          	0           	                	;
 370             	26          	0           	                	;
 371             	26          	0           	                	;
 372             	26          	0           	                	;
 373             	26          	0           	                	;
 374             	26          	0           	                	;
 375             	26          	0           	                	;
 376             	26          	0           	                	;
 377             	26          	0           	                	;
 378             	26          	0           	                	;
 379             	26          	0           	                	;
 380             	26          	0           	                	;
 381             	26          	0           	                	;
 382             	26          	0           	                	;
 383             	26          	0           	                	;
 384             	29          	0           	                	;
 386             	26          	0           	                	;
 387             	26          	0           	                	;
 388             	26          	0           	                	;
 389             	26          	0           	                	;
 390             	26          	0           	                	;
 391             	23          	0           	                	;
 392             	23          	0           	                	;
 393             	22          	0           	                	;
 394             	23          	0           	                	;
 395             	23          	0           	                	;
 396             	21          	0           	                	;
 397             	21          	0           	                	;
 398             	22          	0           	                	;
 399             	22          	0           	                	;
 400             	23          	0           	                	;
 401             	23          	0           	                	;
 402             	24          	0           	                	;
 403             	24          	0           	                	;
 404             	24          	0           	                	;
 405             	24          	0           	                	;
 406             	26          	0           	                	;
 407             	26          	0           	                	;
 408             	26          	0           	                	;
 409             	23          	0           	                	;
 410             	23          	0           	                	;
 411             	21          	371         	                	;
 413             	21          	0           	                	;
 414             	21          	670         	                	;
 415             	26          	0           	                	;
 416             	26          	0           	                	;
 417             	26          	0           	                	;
 418             	29          	0           	                	;
 419             	30          	0           	                	;
 420             	30          	0           	                	;
 421             	30          	0           	                	;
 422             	32          	0           	                	;
 423             	33          	0           	                	;
 425             	34          	0           	                	;
 426             	29          	0           	                	;
 427             	31          	0           	                	;
 428             	33          	0           	                	;
 429             	31          	117         	                	;
 430             	32          	0           	                	;
 431             	32          	0           	                	;
 432             	34          	158         	                	;
 433             	34          	95          	                	;
 434             	26          	0           	                	;
 435             	32          	0           	                	;
 436             	34          	0           	                	;
 437             	34          	0           	                	;
 438             	34          	0           	                	;
 439             	32          	0           	                	;
 440             	32          	0           	                	;
 441             	32          	0           	                	;
 442             	32          	0           	                	;
 443             	32          	0           	                	;
 444             	32          	0           	                	;
 445             	32          	0           	                	;
 446             	32          	0           	                	;
 447             	32          	0           	                	;
 448             	32          	0           	                	;
 449             	32          	0           	                	;
 450             	32          	0           	                	;
 451             	32          	0           	                	;
 452             	32          	0           	                	;
 453             	32          	0           	                	;
 454             	32          	0           	                	;
 455             	32          	0           	                	;
 457             	24          	0           	                	;
 458             	24          	0           	                	;
 459             	23          	0           	                	;
 460             	23          	170         	                	;
 461             	24          	75          	                	;
 462             	24          	0           	                	;
 463             	23          	0           	                	;
 464             	23          	0           	                	;
 465             	24          	0           	                	;
 466             	24          	0           	                	;
 467             	26          	0           	                	;
 468             	24          	134         	                	;
 469             	24          	0           	                	;
 470             	24          	0           	                	;
 471             	24          	0           	                	;
 472             	24          	0           	                	;
 473             	24          	0           	                	;
 474             	24          	0           	                	;
 475             	24          	0           	                	;
 476             	24          	0           	                	;
 477             	24          	0           	                	;
 478             	24          	0           	                	;
 479             	24          	0           	                	;
 480             	24          	0           	                	;
 481             	24          	0           	                	;
 482             	24          	0           	                	;
 483             	24          	0           	                	;
 484             	23          	0           	                	;
 485             	22          	0           	                	;
 486             	22          	0           	                	;
 487             	23          	0           	                	;
 488             	23          	0           	                	;
 489             	23          	0           	                	;
 490             	23          	0           	                	;
 491             	23          	0           	                	;
 492             	23          	0           	                	;
 493             	23          	0           	                	;
 494             	23          	0           	                	;