[TITLE]
方案三
總流量84.33萬CMD
浮洲加壓站至板新專管完成
鶯歌20000CMD
土城patter=0.945

[JUNCTIONS]
;ID              	Elev        	Demand      	Pattern         
 CH34            	9.2         	3000        	板橋中和            	;員山路 - 連城路
 CH72            	8.2         	0           	板橋中和            	;連城路 - 金城路
 Luchow01        	2           	11000       	蘆洲              	;蘆洲-中山路三民路口
 Luchow02        	1.75        	23000       	蘆洲              	;蘆洲-復興路三民路口
 Luchow03        	1.8         	12000       	蘆洲              	;
 Luchow04        	1.8         	5000        	蘆洲              	;蘆洲--三民路高架橋
 WuGu01          	3.56        	0           	五股              	;五股-洲后路成泰路口(成子寮)
 WuGu02          	8.83        	0           	八里              	;
 BaLi01          	10.67       	45600       	八里              	;八里- 龍米路一段
 BaLi00          	1.83        	12000       	八里              	;
 WuGu03          	.6          	0           	五股              	;五股-成泰路新五路口
 WuGu04          	5           	0           	五股              	;五股-新五路中興路口
 WuGU05          	2           	500         	泰山              	;五股- 新五路-明志路一段(五谷交流道)
 SC03            	1.61        	5000        	新莊三重            	;五股-新五路中山路口
 SC04            	2.17        	16000       	新莊三重            	;新莊-中港路中山路
 SC05            	2           	23000       	新莊三重            	;五股思源路中山路口
 SC06-1          	4           	23000       	新莊三重            	;新莊化成路中山路口
 SC10            	1.2         	6000        	新莊三重            	;
 SC07            	0.2         	0           	新莊三重            	;
 SC11            	2.1         	17000       	蘆洲              	;新莊化成路 - 二重疏洪道右岸堤防
 SC12            	2           	0           	新莊三重            	;新莊化成路中興北街口
 LuChow09        	2.33        	0           	蘆洲              	;蘆洲中興路越堤橋(更寮)
 LuChow10        	2.1         	0           	蘆洲              	;四維路 - 中興路
 LuChow12        	0.8         	0           	蘆洲              	;蘆洲中興路-三重中正北路
 LuChow11        	4           	0           	蘆洲              	;蘆洲四維路中山一路口
 LuChow13        	1.69        	20000       	蘆洲              	;蘆洲中山二路 - 中正路口
 LuChow14        	1.53        	18000       	蘆洲              	;蘆洲忠孝路中正路口
 SC13            	1.2         	6000        	新莊三重            	;三重光復路
 SC14            	0.2         	15000       	新莊三重            	;三重化成路
 SC15            	1.44        	16000       	新莊三重            	;三重思源路中原路口
 SC16            	1.36        	12000       	新莊三重            	;新莊中港路中原路口
 SC18            	3.2         	15000       	新莊三重            	;新莊化成路復興路口
 SC19            	3.61        	17000       	新莊三重            	;新莊思源路復興路口
 SC21            	2           	11000       	新莊三重            	;新莊復興路新泰路口
 SC20            	2           	8000        	新莊三重            	;新莊復興路中港路口
 SC22            	0.6         	11000       	新莊三重            	;新莊中原路中山路口
 SC23            	2.47        	4000        	新莊三重            	;新莊新泰路中山路口
 SC24            	2.22        	7000        	新莊三重            	;新莊新泰路瓊林路口
 SC30            	4.81        	0           	新莊三重            	;新莊思源路中正路口
 SC31            	2.11        	0           	新莊三重            	;新莊思源路環河路口
 SC33            	1.97        	0           	新莊三重            	;新莊新海橋西端
 SC34            	2.92        	0           	新莊三重            	;新莊環河路碧江街口
 SC35            	2.03        	0           	新莊三重            	;新莊環河路瓊林路口
 SC36            	6.6         	11000       	新莊三重            	;新莊新樹路瓊林路口
 SL21            	4.61        	0           	樹林              	;板橋浮洲橋西端
 WuGu18          	6.2         	4000        	泰山              	;五股成泰路民義路口(供給水椎社區)
 WuGu17          	3.2         	4000        	五股              	;供給陸光一村
 TS01            	4.2         	3000        	泰山              	;五股成泰路明德路口
 TS02            	5.2         	12000       	泰山              	;泰山明志路泰林路口
 TS05            	6.28        	25000       	泰山              	;泰山明志路中山路口
 TS06            	2           	27000       	新莊三重            	;泰山全興路中山路口
 TS07            	0.2         	0           	泰山              	;泰山泰林路-仁愛路
 SC28            	7.6         	13000       	新莊三重            	;新莊中山路中正路口 5000
 SC37            	7.7         	9000        	新莊三重            	;新莊新樹路民安西路口
 SL02            	9.0         	6000        	樹林              	;樹林樹新路中正路口
 SL03            	10.81       	0           	樹林              	;樹林樹新路大觀路口
 SL04            	10          	5000        	樹林              	;樹林中山路保安街口
 SL05            	9.86        	7000        	樹林              	;樹林大安路保安街口
 SL06            	10.08       	6000        	樹林              	;樹林 大觀路 - 篤行路二段
 SL07            	11          	0           	樹林              	;樹林大安路中正路口
 SL08            	17.3        	10000       	新莊三重            	;龜山萬壽路中正路口 13000
 SC38            	7.6         	5000        	新莊三重            	;新莊中正路富國路口
 SC39            	7.6         	5000        	新莊三重            	;新莊龍安路裕民街口
 SC40            	7.3         	5000        	新莊三重            	;新莊龍安路民安西路口
 SL09            	18.75       	8000        	樹林              	;樹林 中山路 - 中華路
 SL10            	17.67       	6000        	樹林              	;樹林中華路八德街口
 SL11            	15          	0           	樹林              	;樹林篤行路
 SL12            	10.4        	6000        	樹林              	;板橋篤行路浮洲橋口
 SL15            	28          	5000        	樹林              	;柑園橋 - 中洲路
 SL16            	28.43       	0           	樹林              	;西圳街 - 佳園路
 SL17            	24.6        	0           	樹林              	;樹林佳園路西圳街口
 SL18            	34          	0           	樹林              	;樹林彰德街西圳街口
 TC03            	15          	17000       	土城              	;土城中央路中華路口
 TC05            	15.6        	4000        	土城              	;土城中央路中正路口
 TC06            	8.72        	0           	土城              	;土城中華路中央路口
 TC07            	13.2        	8000        	土城              	;土城金城路中正路口
 TC09            	13          	8000        	土城              	;土城金城路清水路口
 TC10            	9.2         	5000        	土城              	;土城金城路明德路一段口
 TC11            	9.2         	8000        	土城              	;土城青雲路金城路口
 TC12            	12.08       	13000       	土城              	;土城青雲路- 學府路一段
 TC13            	10.03       	15000       	土城              	;土城學府路裕民路口
 TC14            	9.58        	15000       	土城              	;土城裕民路中央路口
 TC15            	8.6         	17000       	土城              	;板橋中央路新興橋口
 BC05            	8.6         	0           	土城              	;板橋浮洲橋東端
 BC06            	8.08        	0           	板橋中和            	;板橋浮洲橋河堤
 BC07            	7.97        	18000       	土城              	;板橋南雅南路四川路口
 BC08            	7.6         	0           	板橋中和            	;板橋南雅南路縣民大道口
 BC10            	11.42       	20000       	板橋中和            	;板橋四川路信義路口
 BC11            	9.8         	19000       	板橋中和            	;板橋四川路忠孝路口
 BC12            	7.2         	0           	板橋中和            	;板橋四川路華興街口
 BC15            	6.6         	22000       	板橋中和            	;板橋 南門街- 館前西路(南雅南路)口
 BC16            	6.94        	12000       	板橋中和            	;板橋文化路民權路口
 BC17            	7.28        	7000        	板橋中和            	;板橋民權路中山路(一段)口
 BC18            	7.2         	15000       	板橋中和            	;板橋中山路(四川路)館前西路口
 BC19            	7           	6000        	板橋中和            	;板橋民權路中正路口
 BC20            	7           	6000        	板橋中和            	;板橋中正路正義街口
 BC21            	3.81        	0           	板橋中和            	;板橋長江路新海路口
 BC22            	5.69        	30000       	板橋中和            	;板橋民生路文化路口
 BC23            	5.6         	17000       	板橋中和            	;板橋民生路中山路口
 BC24            	6.2         	17000       	板橋中和            	;板橋漢生東路中山路口
 BC25            	3.83        	11000       	板橋中和            	;板橋民生路長江路口
 BC32            	7.5         	51000       	板橋中和            	;板橋三民路中山路口
 BC33            	5.6         	0           	板橋中和            	;板橋中山路成功街口
 CH82            	8.11        	13000       	板橋中和            	;中和員山路中山路口
 BC38            	8.58        	12000       	板橋中和            	;板橋民族路中山路(三段)口
 CH83            	7.78        	0           	板橋中和            	;中和中山路民治街口
 CH84            	7.94        	0           	板橋中和            	;中和中山路民有街口
 SC29            	8           	8000        	新莊三重            	;新莊中興南街環河路口
 SC27            	3.2         	5000        	新莊三重            	;新莊中興北街
 SC25            	3.2         	5000        	新莊三重            	;新莊光復路
 CH89            	1.2         	0           	泰山              	;全興路 - 仁愛路
 CH90            	2           	0           	泰山              	;全興加壓站
 SC42            	3.2         	0           	新莊三重            	;五谷王北街- 幸福路
 CH97            	8           	0           	板橋中和            	;
 CH98            	30          	0           	樹林              	;柑園路一段 - 佳園路二段
 Bali15          	8.83        	0           	八里              	;
 BaLi11          	8.83        	0           	八里              	;獅子頭加壓站~成泰路四段
 CH101           	1.2         	9000        	泰山              	;明志路一段 - 仁愛路 for 800
 Puchan01        	7           	0           	板橋中和            	;
 Puchan00        	10          	242918.4    	1               	;HWL
 CH103           	0           	0           	泰山              	;閥
 CH104           	2           	0           	泰山              	;
 Bali12          	28.5        	0           	八里              	;
 Bali13          	24          	0           	八里              	;獅子頭加壓站
 CH115           	4.2         	8000        	泰山              	;
 CH117           	10.81       	0           	樹林              	;
 CH118           	7.6         	0           	土城              	;供給亞東醫院及高爾夫球場
 CH119           	7.47        	0           	板橋中和            	;
 CH120           	26          	0           	樹林              	;
 Banxin-Sulin    	40.6        	20000       	三峽鶯歌            	;板新場-樹林線起
 CH121           	6.28        	11000       	新莊三重            	;
 WuGu221         	5.3         	0           	蘆洲              	;
 WuGu20          	5.3         	1000        	八里              	;孝義加壓站
 Banxin-BanChua  	40.6        	0           	                	;
 TS20            	0           	0           	新莊三重            	;
 WUGu10          	0.6         	5000        	五股              	;閥
 CH96            	2           	0           	蘆洲              	;閥
 CH107           	2           	0           	蘆洲              	;閥
 CH108           	11.2        	8000        	土城              	;
 CH109           	20          	0           	土城              	;青雲路 - 福爾摩沙高速公路
 BC48            	11.60       	10000       	板橋中和            	;信義路 - 廣權路
 CH123           	0           	0           	五股              	;
 CH124           	8.2         	9000        	泰山              	;明志路 - 成泰路(泰山配水池)
 CH125           	0           	0           	蘆洲              	;二重疏洪道堤防左岸 - 化成路(大有街)
 CH114           	1.75        	0           	蘆洲              	;閥
 TS25            	0.2         	1000        	泰山              	;閥
 CH129           	2           	0           	蘆洲              	;褒子寮(閥)
 CH130           	2           	0           	新莊三重            	;閥
 CH131           	0.2         	0           	新莊三重            	;閥
 CH132           	3.2         	0           	新莊三重            	;閥
 SC45            	4           	0           	板橋中和            	;閥
 CH137           	7           	0           	板橋中和            	;埔墘加壓站分水點
 CH138           	7           	0           	板橋中和            	;三民路 - 員山路
 BC46            	8.72        	0           	板橋中和            	;莒光路 - 德光路
 BC43            	9.78        	0           	板橋中和            	;德光路 - 民德路
 BC42            	8.6         	0           	板橋中和            	;忠孝路 - 重慶路
 BC44            	9.78        	0           	板橋中和            	;
 BC45            	10.47       	0           	板橋中和            	;
 BC47            	10.75       	0           	板橋中和            	;廣全加壓站
 BC49            	10.75       	0           	板橋中和            	;
 CH147           	6.2         	0           	土城              	;大觀路二段265巷
 CH148           	8.5         	15000       	板橋中和            	;大觀路 - 環河道路
 CH87            	10.2        	0           	土城              	;閥
 CH88            	8.6         	0           	土城              	;閥
 TC18            	9.25        	0           	土城              	;海霸王餐廳壓力監測點
 CH113           	4.03        	10000       	板橋中和            	;閥
 CH68            	8.11        	0           	板橋中和            	;
 CH136           	8.11        	0           	板橋中和            	;
 CH141           	8           	7000        	板橋中和            	;
 CH151           	17          	4000        	土城              	;青雲加壓站
 CH153           	10.03       	0           	土城              	;閥
 CH155           	23.89       	5000        	土城              	;媽祖田(中央路四段)
 CH156           	18.25       	15000       	土城              	;土城工業區(中央路三段)
 Tuchen1-02      	12.6        	8000        	土城              	;承天路(南天母)
 CH159           	28          	0           	土城              	;介壽路三段
 CH160           	29.08       	2000        	土城              	;介壽路三段 - 介壽路二段
 CH161           	26.6        	0           	土城              	;介壽路二段 - 介壽路一段
 CH162           	32.19       	0           	土城              	;介壽路一段 - 三峽橋東端
 CH163           	32.6        	0           	土城              	;三峽橋西端
 CH164           	40.6        	0           	土城              	;
 SL23            	17.3        	5000        	樹林              	;三龍橋壓力監測點 10000
 CH168           	6           	0           	板橋中和            	;光復加壓站
 CH173           	4           	0           	板橋中和            	;萬板橋 - 環河路
 CH174           	5           	0           	板橋中和            	;光復橋 - 環河路
 CH175           	2           	0           	板橋中和            	;華江橋 - 環河路
 CH176           	2.89        	0           	板橋中和            	;大漢橋 - 環河路
 CH177           	4.39        	0           	板橋中和            	;新海橋 - 環河路(水管橋支援點)
 CH181           	6           	0           	板橋中和            	;
 CH182           	6           	0           	板橋中和            	;
 SC50            	2           	0           	泰山              	;新五路加壓站
 ShinWu01        	2           	0           	泰山              	;
 Fuchow0         	10          	282190      	1               	;浮洲加壓站(城林橋 - 環河路)  187000
 Fuchow01        	10          	0           	樹林              	;
 CH188           	15.6        	0           	樹林              	;
 CH190           	9.53        	0           	樹林              	;閥
 BanShin01       	42.3        	0           	                	;三峽、鶯歌
 Banshin02       	42.3        	0           	                	;支援二區
 CH94            	5           	0           	板橋中和            	;
 SL22            	11          	16000       	樹林              	;樹林工業區
 ShinWu00        	2           	34918       	1               	;HWL
 BC50            	10.5        	0           	板橋中和            	;板橋-信義路國慶路口
 ChunHe01        	6           	0           	板橋中和            	;
 ChunHe02        	6           	0           	板橋中和            	;
 CH92            	11          	5000        	土城              	;
 CH99            	0.6         	0           	五股              	;
 9               	28          	0           	土城              	;
 41              	17          	0           	土城              	;
 48              	17          	4000        	土城              	;
 52              	11          	0           	土城              	;
 62              	28          	73482.7     	1               	;HWL
 63              	6           	471750.3    	1               	;
 64              	6           	0           	板橋中和            	;
 CH167           	9           	0           	板橋中和            	;
 CH169           	11          	0           	板橋中和            	;中正橋 - 環河路
 CH172           	0.1         	0           	板橋中和            	;福祥路 - 環河路
 CH171           	7           	0           	板橋中和            	;永和路 - 環河路
 CH170           	6           	0           	板橋中和            	;華中橋 - 環河路
 5               	3           	0           	蘆洲              	;
 6               	9.2         	0           	土城              	;
 4               	6.28        	5000        	新莊三重            	;
 7               	2           	0           	泰山              	;
 10              	2.89        	0           	板橋中和            	;
 11              	4.39        	0           	板橋中和            	;
 12              	2.89        	0           	板橋中和            	;
 13              	2.92        	0           	新莊三重            	;
 14              	3           	0           	蘆洲              	;
 15              	3           	0           	蘆洲              	;
 16              	8.2         	0           	樹林              	;
 26              	2.33        	5000        	蘆洲              	;
 27              	7.6         	0           	板橋中和            	;
 29              	4.39        	0           	板橋中和            	;
 30              	4           	0           	新莊三重            	;
 31              	2.03        	0           	新莊三重            	;
 32              	7.8         	0           	                	;
 33              	9.86        	0           	樹林              	;
 34              	18.75       	0           	樹林              	;
 35              	0           	0           	板橋中和            	;
 36              	20          	0           	土城              	;
 37              	28          	0           	土城              	;
 38              	0           	0           	泰山              	;
 39              	0           	0           	蘆洲              	;
 20              	2.89        	0           	板橋中和            	;
 40              	2.89        	0           	板橋中和            	;
 42              	2.89        	0           	板橋中和            	;
 43              	2.89        	0           	板橋中和            	;
 44              	2.89        	0           	板橋中和            	;
 45              	2.89        	0           	板橋中和            	;
 46              	2.89        	0           	板橋中和            	;
 47              	4.39        	0           	板橋中和            	;
 49              	4.39        	0           	板橋中和            	;
 50              	4.39        	0           	板橋中和            	;
 53              	4.39        	0           	板橋中和            	;
 54              	4.39        	0           	板橋中和            	;
 55              	4.39        	0           	板橋中和            	;
 56              	4.39        	0           	板橋中和            	;
 57              	4.39        	0           	板橋中和            	;
 58              	4           	0           	板橋中和            	;
 59              	2.03        	0           	新莊三重            	;
 60              	2.03        	0           	新莊三重            	;
 61              	2.03        	0           	新莊三重            	;
 66              	8.2         	0           	樹林              	;
 67              	8.25        	0           	樹林              	;
 68              	15.6        	6000        	樹林              	;
 69              	15.6        	0           	樹林              	;
 70              	15.6        	0           	樹林              	;
 71              	17.67       	0           	樹林              	;
 72              	18.75       	0           	樹林              	;
 73              	18.75       	0           	樹林              	;
 74              	8.2         	0           	樹林              	;
 75              	8.2         	0           	樹林              	;
 76              	7.8         	5000        	樹林              	;
 77              	9           	0           	板橋中和            	;
 78              	0           	0           	新莊三重            	;
 79              	32.5        	0           	1               	;
 80              	0           	0           	泰山              	;
 81              	0           	0           	泰山              	;
 82              	2           	0           	泰山              	;
 28              	2.89        	0           	板橋中和            	;
 51              	5.69        	0           	板橋中和            	;
 83              	7           	0           	板橋中和            	;
 84              	28          	0           	土城              	;
 1               	2.22        	0           	                	;
 3               	6.28        	0           	                	;
 18              	6.28        	0           	                	;
 19              	6.8         	3000        	                	;
 21              	6.28        	0           	                	;
 22              	6.0         	0           	                	;
 24              	6.8         	3000        	                	;
 25              	2.22        	0           	                	;
 65              	4           	0           	新莊三重            	;
 85              	0           	0           	                	;
 86              	8.0         	0           	                	;
 88              	0           	0           	                	;
 89              	0           	0           	                	;
 90              	0           	0           	                	;
 91              	0           	0           	                	;
 87              	36          	0           	                	;
 92              	18          	0           	                	;
 93              	24.6        	0           	                	;
 94              	34          	0           	                	;
 95              	15          	-34885      	                	;關渡大橋支援
 97              	12.5        	0           	                	;
 98              	12.5        	0           	                	;
 99              	22.09       	0           	                	;八德街口
 100             	27.76       	0           	                	;館前路口
 101             	42.19       	0           	                	;文化路口
 103             	43.23       	0           	                	;環河路口
 104             	44.55       	0           	                	;三鶯橋頭
 105             	43.52       	0           	                	;三鶯橋尾

[RESERVOIRS]
;ID              	Head        	Pattern         
 板新淨水場           	42.5        	                	;板新淨水廠
 中和平壓塔           	23.26       	                	;
 徐匯中學            	10          	                	;
 2               	22.67       	                	;
 光復加壓站           	6           	                	;
 埔墘加壓站           	5           	                	;
 清水加壓站           	28          	                	;31.2
 浮洲加壓站           	13          	                	;浮洲加壓站
 新五路加壓站          	2           	                	;
 23              	24.5        	                	;
 五谷王北街           	25.0805     	                	;五谷王北街
 泰山配水池           	42.5        	                	;

[TANKS]
;ID              	Elevation   	InitLevel   	MinLevel    	MaxLevel    	Diameter    	MinVol      	VolCurve        	Overflow
 Puchan          	7           	2           	0           	4.5         	44          	0           	                	;板橋 三民路二段- 永和路
 Shizitou        	24.5        	4           	0           	5           	11.28       	0           	                	;
 KuanFu          	6           	3.8         	0           	4           	143         	0           	                	;光復加壓站配水池
 ShinWuTank      	2           	4           	0           	4.5         	46          	0           	                	;新五路加壓站配水池
 Fuchow          	25.2        	4           	0           	4.5         	84          	0           	                	;浮洲加壓站配水池
 8               	28          	5           	0           	5           	50.5        	0           	                	;
 17              	32.5        	8           	0           	9           	50          	0           	                	;
 96              	46.7745     	0           	0           	8           	50          	0           	                	;

[PIPES]
;ID              	Node1           	Node2           	Length      	Diameter    	Roughness   	MinorLoss   	Status
 CHP125          	39              	Luchow01        	300         	600         	95          	0           	Open  	;
 CHP126          	Luchow01        	Luchow02        	488.50      	800         	95          	0           	Open  	;
 CHP128          	Luchow02        	Luchow03        	1071.94     	400         	95          	0           	Open  	;
 CHP134          	Bali15          	BaLi01          	700         	600         	95          	0           	Open  	;
 CHP139          	WuGu01          	WUGu10          	1700        	600         	95          	0           	Open  	;
 CHP140          	CH99            	WuGu04          	1054.00     	1000        	95          	0           	Open  	;
 CHP142          	SC50            	SC03            	1096.69     	1000        	95          	0           	Open  	;
 CHP143          	SC03            	SC04            	820.69      	1100        	95          	0           	Open  	;
 CHP144          	SC04            	SC05            	953.13      	1100        	95          	0           	Open  	;
 CHP145          	SC05            	CH130           	23.70       	900         	95          	0           	Open  	;
 CHP146          	SC07            	SC10            	750         	700         	95          	0           	Open  	;
 CHP147          	SC06-1          	SC07            	23          	700         	95          	0           	Open  	;
 CHP149          	SC06-1          	SC12            	109.20      	500         	95          	0           	Open  	;
 CHP150          	SC07            	SC12            	150.59      	600         	95          	0           	Open  	;
 CHP152          	LuChow10        	LuChow12        	250.62      	400         	95          	0           	Open  	;
 CHP153          	LuChow10        	LuChow11        	419.46      	1350        	95          	0           	Open  	;
 CHP154          	LuChow11        	LuChow13        	663.18      	500         	95          	0           	Open  	;
 CHP155          	LuChow13        	CH96            	450         	600         	95          	0           	Open  	;
 CHP157          	LuChow11        	CH107           	978.00      	600         	95          	0           	Open  	;中山一路
 CHP158          	LuChow13        	LuChow14        	288.55      	350         	95          	0           	Open  	;
 CHP159          	LuChow14        	CH114           	350.52      	400         	95          	0           	Open  	;
 CHP160          	SC10            	SC13            	717.04      	700         	95          	0           	Open  	;
 CHP161          	SC06-1          	SC14            	771.58      	500         	95          	0           	Open  	;
 CHP162          	SC13            	SC14            	600.65      	400         	95          	0           	Open  	;
 CHP163          	SC05            	SC15            	660         	1200        	95          	0           	Open  	;
 CHP164          	SC04            	SC16            	674.03      	400         	95          	0           	Open  	;
 CHP165          	CH131           	SC18            	1023.18     	600         	95          	0           	Open  	;
 CHP166          	SC15            	SC19            	1080        	1200        	95          	0           	Open  	;
 CHP156          	SC16            	SC20            	1229.49     	450         	95          	0           	Open  	;
 CHP167          	SC18            	SC19            	547.99      	600         	95          	0           	Open  	;
 CHP168          	SC19            	SC20            	688.01      	400         	95          	0           	Open  	;
 CHP169          	SC20            	SC21            	848.82      	500         	95          	0           	Open  	;
 CHP170          	SC03            	SC22            	496.87      	1100        	95          	0           	Open  	;
 CHP171          	SC22            	SC23            	287.77      	1100        	95          	0           	Open  	;
 CHP172          	SC23            	SC21            	1397.23     	800         	95          	0           	Open  	;
 CHP173          	SC19            	SC30            	550         	1200        	95          	0           	Open  	;
 CHP174          	SC30            	SC31            	200         	1200        	95          	0           	Open  	;
 CHP177          	SC31            	SC33            	610         	1000        	95          	0           	Open  	;
 CHP178          	SC33            	SC34            	812         	1000        	95          	0           	Open  	;
 CHP181          	61              	66              	3980        	1200        	95          	0.5         	Open  	;
 CHP183          	WuGu17          	WuGu18          	265         	350         	95          	0           	Open  	;
 CHP184          	WuGu04          	WuGU05          	1850        	1000        	95          	0           	Open  	;
 CHP185          	WuGu18          	TS01            	1314        	700         	95          	0           	Open  	;
 CHP191          	78              	21              	1928.3      	1100        	95          	0           	Open  	;
 CHP192          	TS06            	SC23            	227.80      	1100        	95          	0           	Open  	;
 CHP193          	TS02            	TS07            	605.92      	800         	95          	0           	Open  	;
 CHP194          	SC23            	TS25            	554.61      	800         	95          	0           	Closed	;
 CHP195          	CH121           	SC28            	1650.18     	1100        	95          	0           	Open  	;
 CHP141          	SC21            	SC24            	960         	800         	95          	0           	Open  	;
 CHP197          	SC36            	SC37            	1747        	900         	95          	0           	Open  	;
 CHP200          	SL02            	SL03            	579         	1000        	95          	0           	Open  	;樹林樹新路保安街口
 CHP201          	CH117           	SL04            	179         	900         	95          	0           	Open  	;
 CHP202          	SL04            	33              	500         	1100        	95          	0           	Open  	;
 CHP203          	SL03            	SL06            	503.85      	500         	95          	0           	Open  	;
 CHP204          	SL05            	SL07            	681.19      	1100        	95          	0           	Open  	;
 CHP207          	SL07            	SL22            	1311.12     	1100        	95          	0           	Open  	;
 CHP208          	SL08            	SC28            	757.00      	500         	95          	0           	Open  	;
 CHP196          	CH121           	SC38            	450.09      	1100        	95          	0           	Open  	;
 CHP205          	SC38            	SC28            	801.31      	1100        	95          	0           	Open  	;
 CHP206          	SC28            	SC39            	615.39      	600         	95          	0           	Open  	;
 CHP209          	SC39            	SC40            	780         	500         	95          	0           	Open  	;