[TITLE]


[JUNCTIONS]
;ID              	Elev        	Demand      	Pattern         
 1               	44          	73          	                	;
 2               	44          	43          	                	;
 3               	41          	52          	                	;
 4               	41          	6           	                	;
 5               	43          	4           	                	;
 6               	42          	153         	                	;
 7               	43          	63          	                	;
 8               	42          	110         	                	;
 9               	42          	161         	                	;
 10              	43          	136         	                	;
 11              	43          	3           	                	;
 12              	43          	0           	                	;
 13              	45          	6           	                	;
 14              	44          	42          	                	;
 15              	44          	57          	                	;
 16              	42          	29          	                	;
 17              	42          	66          	                	;
 18              	43          	94          	                	;
 19              	42          	43          	                	;
 20              	43          	3           	                	;
 21              	43          	10          	                	;
 22              	44          	18          	                	;
 23              	44          	20          	                	;
 24              	44          	85          	                	;
 25              	44          	46          	                	;
 26              	44          	52          	                	;
 27              	43          	3           	                	;
 28              	43          	85          	                	;
 29              	43          	45          	                	;
 30              	43          	15          	                	;
 31              	44          	44          	                	;
 32              	43          	0           	                	;
 33              	42          	15          	                	;
 34              	43          	47          	                	;
 35              	42          	7           	                	;
 36              	42          	12          	                	;
 37              	42          	15          	                	;
 38              	41          	42          	                	;
 39              	40          	89          	                	;
 40              	41          	7           	                	;
 41              	42          	0           	                	;
 42              	41          	39          	                	;
 43              	40          	57          	                	;
 44              	41          	9           	                	;
 45              	40          	58          	                	;
 46              	40          	30          	                	;
 47              	40          	20          	                	;
 49              	39          	30          	                	;
 50              	38          	246         	                	;
 51              	40          	20          	                	;
 52              	40          	271         	                	;
 53              	40          	25          	                	;
 54              	40          	7           	                	;
 55              	40          	165         	                	;
 56              	39          	40          	                	;
 57              	39          	20          	                	;
 58              	39          	1           	                	;
 59              	39          	0           	                	;
 60              	39          	66          	                	;
 61              	40          	0           	                	;
 62              	40          	28          	                	;
 63              	40          	0           	                	;
 64              	40          	0           	                	;
 65              	41          	15          	                	;
 66              	41          	92          	                	;
 67              	42          	10          	                	;
 68              	42          	80          	                	;
 69              	43          	0           	                	;
 70              	44          	64          	                	;
 71              	42          	55          	                	;
 72              	42          	4           	                	;
 73              	41          	15          	                	;
 74              	41          	6           	                	;
 75              	40          	34          	                	;
 76              	40          	9           	                	;
 77              	40          	59          	                	;
 78              	42          	94          	                	;
 79              	40          	10          	                	;
 80              	40          	26          	                	;
 81              	41          	9           	                	;
 82              	41          	11          	                	;
 83              	40          	0           	                	;
 84              	40          	12          	                	;
 85              	39          	6           	                	;
 86              	39          	0           	                	;
 87              	39          	0           	                	;
 88              	39          	39          	                	;
 89              	40          	51          	                	;
 90              	40          	11          	                	;
 91              	39          	14          	                	;
 92              	40          	10          	                	;
 93              	43          	0           	                	;
 94              	43          	0           	                	;

[RESERVOIRS]
;ID              	Head        	Pattern         
 95              	75          	                	;

[TANKS]
;ID              	Elevation   	InitLevel   	MinLevel    	MaxLevel    	Diameter    	MinVol      	VolCurve        	Overflow

[PIPES]
;ID              	Node1           	Node2           	Length      	Diameter    	Roughness   	MinorLoss   	Status
 2               	50              	49              	67          	200         	100         	0           	Open  	;
 3               	60              	50              	110         	200         	100         	0           	Open  	;
 4               	56              	60              	142         	200         	100         	0           	Open  	;
 5               	52              	50              	136         	100         	100         	0           	Open  	;
 6               	52              	51              	66          	200         	100         	0           	Open  	;
 7               	56              	52              	93          	200         	100         	0           	Open  	;
 8               	57              	56              	41          	200         	100         	0           	Open  	;
 9               	58              	57              	18          	200         	100         	0           	Open  	;
 10              	59              	58              	27          	200         	100         	0           	Open  	;
 11              	61              	63              	67          	100         	100         	0           	Open  	;
 12              	63              	58              	146         	100         	100         	0           	Open  	;
 13              	61              	59              	145         	200         	100         	0           	Open  	;
 15              	55              	57              	142         	100         	100         	0           	Open  	;
 16              	55              	53              	104         	100         	100         	0           	Open  	;
 17              	53              	52              	134         	100         	100         	0           	Open  	;
 18              	53              	54              	69          	100         	100         	0           	Open  	;
 19              	54              	51              	134         	300         	100         	0           	Open  	;
 20              	46              	54              	18          	300         	100         	0           	Open  	;
 21              	62              	61              	19          	200         	100         	0           	Open  	;
 22              	39              	47              	100         	100         	100         	0           	Open  	;
 23              	47              	46              	68          	100         	100         	0           	Open  	;
 24              	43              	47              	125         	100         	100         	0           	Open  	;
 25              	40              	39              	121         	100         	100         	0           	Open  	;
 26              	40              	43              	60          	100         	100         	0           	Open  	;
 27              	43              	45              	70          	100         	100         	0           	Open  	;
 28              	45              	46              	129         	300         	100         	0           	Open  	;
 30              	41              	40              	102         	100         	100         	0           	Open  	;
 31              	41              	42              	46          	200         	100         	0           	Open  	;
 32              	42              	43              	102         	100         	100         	0           	Open  	;
 33              	42              	44              	69          	200         	100         	0           	Open  	;
 34              	44              	45              	107         	300         	100         	0           	Open  	;
 35              	38              	44              	13          	300         	100         	0           	Open  	;
 36              	36              	37              	52          	200         	100         	0           	Open  	;
 37              	37              	38              	64          	200         	100         	0           	Open  	;
 38              	33              	36              	143         	100         	100         	0           	Open  	;
 39              	33              	34              	60          	100         	100         	0           	Open  	;
 40              	34              	37              	143         	100         	100         	0           	Open  	;
 41              	34              	35              	68          	100         	100         	0           	Open  	;
 42              	35              	38              	144         	300         	100         	0           	Open  	;
 43              	17              	36              	17          	200         	100         	0           	Open  	;
 44              	68              	41              	17          	200         	100         	0           	Open  	;
 45              	32              	33              	33          	100         	100         	0           	Open  	;
 46              	30              	32              	139         	100         	100         	0           	Open  	;
 47              	31              	30              	50          	100         	100         	0           	Open  	;
 48              	31              	32              	159         	100         	100         	0           	Open  	;
 49              	30              	29              	65          	100         	100         	0           	Open  	;
 50              	29              	28              	66          	100         	100         	0           	Open  	;
 51              	28              	35              	177         	300         	100         	0           	Open  	;
 52              	29              	34              	175         	100         	100         	0           	Open  	;
 53              	26              	31              	113         	100         	100         	0           	Open  	;
 54              	26              	27              	204         	300         	100         	0           	Open  	;
 55              	69              	27              	5           	300         	100         	0           	Open  	;
 56              	69              	28              	106         	300         	100         	0           	Open  	;
 57              	26              	25              	19          	300         	100         	0           	Open  	;
 58              	25              	24              	58          	300         	100         	0           	Open  	;
 59              	24              	23              	13          	300         	100         	0           	Open  	;
 60              	23              	22              	117         	300         	100         	0           	Open  	;
 61              	24              	21              	194         	200         	100         	0           	Open  	;
 62              	25              	20              	209         	100         	100         	0           	Open  	;
 64              	20              	19              	82          	100         	100         	0           	Open  	;
 65              	19              	17              	145         	100         	100         	0           	Open  	;
 66              	19              	18              	131         	100         	100         	0           	Open  	;
 67              	20              	21              	108         	100         	100         	0           	Open  	;
 68              	21              	18              	77          	200         	100         	0           	Open  	;
 69              	18              	16              	142         	200         	100         	0           	Open  	;
 70              	17              	16              	142         	200         	100         	0           	Open  	;
 71              	16              	9               	13          	200         	100         	0           	Open  	;
 73              	23              	15              	120         	200         	100         	0           	Open  	;
 74              	15              	11              	150         	200         	100         	0           	Open  	;
 75              	11              	9               	145         	200         	100         	0           	Open  	;
 76              	15              	13              	70          	100         	100         	0           	Open  	;
 77              	13              	12              	148         	100         	100         	0           	Open  	;
 78              	11              	12              	75          	100         	100         	0           	Open  	;
 79              	9               	8               	145         	200         	100         	0           	Open  	;
 80              	13              	14              	52          	100         	100         	0           	Open  	;
 81              	22              	14              	115         	100         	100         	0           	Open  	;
 82              	14              	10              	147         	100         	100         	0           	Open  	;
 83              	10              	8               	142         	200         	100         	0           	Open  	;
 84              	8               	4               	34          	200         	100         	0           	Open  	;
 85              	4               	3               	68          	200         	100         	0           	Open  	;
 87              	7               	5               	25          	100         	100         	0           	Open  	;
 88              	5               	6               	68          	100         	100         	0           	Open  	;
 89              	1               	6               	255         	300         	100         	0           	Open  	;
 90              	6               	3               	142         	300         	100         	0           	Open  	;
 91              	5               	4               	139         	100         	100         	0           	Open  	;
 92              	22              	2               	21          	300         	100         	0           	Open  	;
 93              	2               	1               	105         	300         	100         	0           	Open  	;
 94              	2               	70              	82          	100         	100         	0           	Open  	;
 95              	70              	7               	180         	100         	100         	0           	Open  	;
 86              	67              	65              	96          	200         	100         	0           	Open  	;
 96              	65              	62              	110         	200         	100         	0           	Open  	;
 97              	62              	64              	75          	100         	100         	0           	Open  	;
 98              	64              	66              	125         	100         	100         	0           	Open  	;
 99              	66              	65              	125         	100         	100         	0           	Open  	;
 100             	66              	68              	98          	100         	100         	0           	Open  	;
 101             	68              	67              	142         	200         	100         	0           	Open  	;
 102             	67              	71              	11          	200         	100         	0           	Open  	;
 103             	81              	82              	69          	200         	100         	0           	Open  	;
 104             	82              	79              	184         	100         	100         	0           	Open  	;
 105             	79              	80              	71          	100         	100         	0           	Open  	;
 106             	80              	81              	176         	300         	100         	0           	Open  	;
 107             	81              	3               	12          	300         	100         	0           	Open  	;
 108             	87              	85              	62          	200         	100         	0           	Open  	;
 109             	85              	84              	155         	100         	100         	0           	Open  	;
 110             	84              	83              	70          	100         	100         	0           	Open  	;
 111             	86              	88              	74          	200         	100         	0           	Open  	;
 112             	88              	89              	150         	100         	100         	0           	Open  	;
 113             	89              	90              	70          	100         	100         	0           	Open  	;
 114             	86              	90              	156         	100         	100         	0           	Open  	;
 115             	88              	91              	75          	200         	100         	0           	Open  	;
 116             	91              	92              	145         	200         	100         	0           	Open  	;
 117             	92              	89              	78          	100         	100         	0           	Open  	;
 118             	92              	75              	19          	200         	100         	0           	Open  	;
 119             	75              	76              	77          	100         	100         	0           	Open  	;
 120             	86              	85              	19          	200         	100         	0           	Open  	;
 121             	76              	77              	72          	100         	100         	0           	Open  	;
 122             	77              	78              	189         	100         	100         	0           	Open  	;
 123             	78              	82              	31          	200         	100         	0           	Open  	;
 124             	78              	72              	78          	200         	100         	0           	Open  	;
 125             	76              	73              	103         	100         	100         	0           	Open  	;
 126             	73              	72              	92          	100         	100         	0           	Open  	;
 127             	73              	74              	73          	100         	100         	0           	Open  	;
 128             	75              	74              	109         	200         	100         	0           	Open  	;
 129             	74              	71              	96          	200         	100         	0           	Open  	;
 130             	71              	72              	69          	200         	100         	0           	Open  	;
 131             	51              	49              	136         	300         	100         	0           	Open  	;
 132             	59              	91              	12          	200         	100         	0           	Open  	;
 133             	12              	10              	57          	100         	100         	0           	Open  	;
 134             	95              	94              	0.0001      	400         	100         	0           	Open  	;
 135             	94              	93              	1           	300         	100         	0           	Open  	;
 136             	93              	69              	16          	200         	100         	0           	Open  	;

[PUMPS]
;ID              	Node1           	Node2           	Parameters

[VALVES]
;ID              	Node1           	Node2           	Diameter    	Type	Setting     	MinorLoss   

[TAGS]

[DEMANDS]
;Junction        	Demand      	Pattern         	Category

[STATUS]
;ID              	Status/Setting

[PATTERNS]
;ID              	Multipliers

[CURVES]
;ID              	X-Value     	Y-Value

[CONTROLS]

[RULES]

[ENERGY]
 Global Efficiency  	75
 Global Price       	0
 Demand Charge      	0

[EMITTERS]
;Junction        	Coefficient

[QUALITY]
;Node            	InitQual

[SOURCES]
;Node            	Type        	Quality     	Pattern

[REACTIONS]
;Type     	Pipe/Tank       	Coefficient


[REACTIONS]
 Order Bulk            	1
 Order Tank            	1
 Order Wall            	1
 Global Bulk           	0
 Global Wall           	0
 Limiting Potential    	0
 Roughness Correlation 	0

[MIXING]
;Tank            	Model

[TIMES]
 Duration           	0
 Hydraulic Timestep 	1:00
 Quality Timestep   	0:05
 Pattern Timestep   	1:00
 Pattern Start      	0:00
 Report Timestep    	1:00
 Report Start       	0:00
 Start ClockTime    	12 am
 Statistic          	None

[REPORT]
 Status             	No
 Summary            	No
 Page               	0

[OPTIONS]
 Units              	CMD
 Headloss           	H-W
 Specific Gravity   	1
 Viscosity          	1
 Trials             	40
 Accuracy           	0.001
 CHECKFREQ          	2
 MAXCHECK           	10
 DAMPLIMIT          	0
 Unbalanced         	Continue 10
 Pattern            	1
 Demand Multiplier  	1.0
 Emitter Exponent   	0.5
 Quality            	None mg/L
 Diffusivity        	1
 Tolerance          	0.01

[COORDINATES]
;Node            	X-Coord           	Y-Coord
1               	9216.862          	6958.374          
2               	8836.811          	6238.887          
3               	6521.689          	8455.370          
4               	6243.178          	8002.790          
5               	7186.054          	7474.779          
6               	7481.971          	7912.854          
7               	7101.920          	7315.216          
8               	6103.923          	7779.401          
9               	5509.186          	6824.921          
10              	7020.688          	7164.356          
11              	6489.776          	6294.009          
12              	6791.496          	6781.403          
13              	7789.494          	6206.975          
14              	7986.772          	6552.212          
15              	7513.884          	5734.086          
16              	5459.866          	6740.787          
17              	4870.932          	5809.516          
18              	6425.951          	6212.777          
19              	5895.040          	5348.233          
20              	6515.887          	5197.373          
21              	6956.862          	5922.661          
22              	8761.381          	6093.830          
23              	8326.208          	5293.111          
24              	8282.690          	5203.175          
25              	8070.906          	4808.618          
26              	7998.377          	4672.264          
27              	7253.002          	3275.768          
28              	6489.776          	3680.069          
29              	6739.276          	4132.649          
30              	6977.170          	4576.525          
31              	7165.746          	4921.763          
32              	6019.789          	5072.623          
33              	5793.499          	5191.570          
34              	5544.000          	4794.112          
35              	5274.192          	4341.532          
36              	4810.008          	5690.569          
37              	4586.619          	5356.936          
38              	4331.317          	4927.565          
39              	3542.203          	6998.990          
40              	4116.632          	6244.690          
41              	4722.973          	5745.691          
42              	4528.596          	5435.267          
43              	3852.626          	5855.935          
44              	4250.085          	4979.786          
45              	3545.104          	5412.058          
46              	2747.286          	6018.399          
47              	3072.216          	6439.067          
49              	1000.791          	7402.250          
50              	1305.412          	7831.621          
51              	1842.126          	6755.293          
52              	2135.143          	7187.565          
53              	2964.873          	6529.003          
54              	2639.944          	6105.434          
55              	3440.662          	7155.652          
56              	2550.008          	7776.499          
57              	2744.385          	8031.801          
58              	2825.618          	8150.748          
59              	2953.268          	8316.114          
60              	1775.399          	8536.602          
61              	3870.033          	7672.058          
62              	3988.981          	7590.826          
63              	3542.203          	7268.797          
64              	3655.348          	7161.455          
65              	4737.479          	7161.455          
66              	4221.073          	6334.625          
67              	5381.535          	6795.909          
68              	4798.403          	5855.935          
69              	7219.409          	3293.988          
70              	8268.695          	6575.280          
71              	5426.330          	6872.082          
72              	5708.116          	7325.531          
73              	5103.973          	7706.757          
74              	4782.490          	7240.979          
75              	4054.895          	7669.798          
76              	4426.480          	8139.904          
77              	4804.741          	8593.816          
78              	6028.831          	7837.234          
79              	4924.894          	8727.320          
80              	5256.923          	9165.904          
81              	6442.386          	8500.364          
82              	6153.128          	8046.451          
83              	5105.866          	9217.328          
84              	4797.324          	8830.044          
85              	3767.244          	9461.590          
86              	3677.253          	9339.459          
87              	4025.969          	9837.626          
88              	3344.606          	8870.218          
89              	4312.013          	8220.995          
90              	4651.088          	8674.166          
91              	3005.531          	8394.550          
92              	3931.157          	7748.540          
93              	7287.734          	3258.687          
94              	7296.275          	3253.563          
95              	7234.213          	3137.980          

[VERTICES]
;Link            	X-Coord           	Y-Coord
4               	2293.653          	7967.942          
4               	2079.201          	8204.967          
4               	1958.808          	8370.509          
4               	1819.602          	8528.526          
15              	3117.597          	7561.613          
19              	2417.809          	6308.766          
22              	3505.115          	6989.743          
25              	3580.361          	7001.030          
30              	4419.355          	5925.011          
30              	4204.904          	6113.126          
38              	5717.350          	5270.370          
38              	5119.144          	5522.444          
48              	7068.018          	4976.910          
48              	6872.378          	5040.869          
48              	6469.811          	5067.205          
48              	6044.671          	5146.214          
51              	5739.924          	4051.383          
53              	7587.216          	4747.409          
53              	7399.100          	4852.754          
56              	6821.838          	3509.654          
56              	6725.975          	3558.815          
56              	6547.767          	3652.220          
62              	7636.628          	4893.530          
62              	7433.464          	4991.350          
62              	7264.160          	5028.973          
62              	7008.323          	5141.842          
62              	6887.929          	5175.703          
64              	6146.755          	5258.474          
65              	5503.401          	5484.212          
69              	5992.501          	6451.124          
70              	5176.081          	6296.870          
74              	7102.381          	5965.787          
74              	6861.593          	6120.042          
75              	6097.845          	6530.133          
75              	5612.508          	6770.920          