[TITLE]


[JUNCTIONS]
;ID              	Elev        	Demand      	Pattern         
 1               	20          	20          	                	;
 2               	35          	20          	                	;
 3               	20          	30          	                	;
 4               	20          	0           	                	;
 9               	20          	0           	                	;
 12              	60          	20          	                	;
 13              	80          	20          	                	;
 14              	20          	0           	                	;
 15              	20          	0           	                	;
 16              	70          	2           	                	;
 17              	60          	2           	                	;
 18              	40          	2           	                	;
 19              	55          	2           	                	;
 20              	30          	2           	                	;
 21              	25          	2           	                	;
 23              	24          	6           	                	;
 24              	36          	5           	                	;
 25              	47          	5           	                	;
 26              	0           	0           	                	;
 27              	90          	3           	                	;
 28              	70          	3           	                	;
 29              	46          	30          	                	;
 30              	46          	44          	                	;
 32              	5           	20          	                	;
 33              	8           	10          	                	;
 34              	54          	7           	                	;
 35              	0           	0           	                	;
 36              	50          	5           	                	;
 37              	50          	4           	                	;
 38              	60          	2           	                	;

[RESERVOIRS]
;ID              	Head        	Pattern         
 7               	56          	                	;
 8               	62          	                	;
 10              	20          	                	;
 22              	80          	                	;
 31              	60          	                	;

[TANKS]
;ID              	Elevation   	InitLevel   	MinLevel    	MaxLevel    	Diameter    	MinVol      	VolCurve        	Overflow
 5               	45          	10          	0           	20          	50          	0           	                	;
 6               	80          	10          	0           	20          	50          	0           	                	;
 11              	90          	10          	0           	20          	50          	0           	                	;

[PIPES]
;ID              	Node1           	Node2           	Length      	Diameter    	Roughness   	MinorLoss   	Status
 1               	7               	2               	1313        	100         	100         	0           	Open  	;
 2               	5               	3               	342         	200         	100         	0           	Open  	;
 4               	1               	8               	374         	100         	100         	0           	Open  	;
 3               	1               	2               	535         	200         	100         	0           	Open  	;
 5               	7               	4               	324         	12          	100         	0           	Open  	;
 6               	9               	6               	342         	12          	100         	0           	Open  	;
 9               	12              	13              	424         	12          	100         	0           	Open  	;
 10              	13              	11              	263         	12          	100         	0           	Open  	;
 11              	15              	12              	225         	12          	100         	0           	Open  	;
 12              	10              	14              	356         	12          	100         	0           	Open  	;
 13              	21              	20              	327         	12          	100         	0           	Open  	;
 14              	20              	18              	3689        	12          	100         	0           	Open  	;
 15              	18              	19              	458         	12          	100         	0           	Open  	;
 16              	19              	17              	428         	12          	100         	0           	Open  	;
 17              	17              	16              	74          	12          	100         	0           	Open  	;
 18              	22              	21              	462         	12          	100         	0           	Open  	;
 19              	30              	23              	470         	12          	100         	0           	Open  	;
 20              	23              	26              	169         	12          	100         	0           	Open  	;
 21              	23              	24              	469         	12          	100         	0           	Open  	;
 22              	24              	25              	9764        	12          	100         	0           	Open  	;
 23              	23              	29              	369         	12          	100         	0           	Open  	;
 25              	28              	27              	247         	12          	100         	0           	Open  	;
 26              	31              	30              	569         	12          	100         	0           	Open  	;
 27              	19              	32              	26          	12          	100         	0           	Open  	;
 28              	32              	33              	2436        	12          	100         	0           	Open  	;
 30              	25              	34              	852         	12          	100         	0           	Open  	;
 31              	33              	34              	4376        	12          	100         	0           	Open  	;
 32              	35              	20              	124         	12          	100         	0           	Open  	;
 33              	36              	32              	468         	12          	100         	0           	Open  	;
 34              	33              	37              	4376        	12          	100         	0           	Open  	;
 35              	37              	38              	124         	12          	100         	0           	Open  	;
 24              	29              	28              	5425        	12          	100         	0           	Open  	;

[PUMPS]
;ID              	Node1           	Node2           	Parameters
 7               	4               	9               	HEAD 1	;
 8               	14              	15              	HEAD 1	;

[VALVES]
;ID              	Node1           	Node2           	Diameter    	Type	Setting     	MinorLoss   

[TAGS]

[DEMANDS]
;Junction        	Demand      	Pattern         	Category

[STATUS]
;ID              	Status/Setting

[PATTERNS]
;ID              	Multipliers

[CURVES]
;ID              	X-Value     	Y-Value
;PUMP: PUMP: PUMP: PUMP: 
 1               	30          	80          

[CONTROLS]




[RULES]




[ENERGY]
 Global Efficiency  	75
 Global Price       	0
 Demand Charge      	0

[EMITTERS]
;Junction        	Coefficient

[QUALITY]
;Node            	InitQual

[SOURCES]
;Node            	Type        	Quality     	Pattern

[REACTIONS]
;Type     	Pipe/Tank       	Coefficient


[REACTIONS]
 Order Bulk            	1
 Order Tank            	1
 Order Wall            	1
 Global Bulk           	0
 Global Wall           	0
 Limiting Potential    	0
 Roughness Correlation 	0

[MIXING]
;Tank            	Model

[TIMES]
 Duration           	0:00 
 Hydraulic Timestep 	1:00 
 Quality Timestep   	0:05 
 Pattern Timestep   	1:00 
 Pattern Start      	0:00 
 Report Timestep    	1:00 
 Report Start       	0:00 
 Start ClockTime    	12 am
 Statistic          	NONE

[REPORT]
 Status             	No
 Summary            	No
 Page               	0

[OPTIONS]
 Units              	CMD
 Headloss           	H-W
 Specific Gravity   	1
 Viscosity          	1
 Trials             	40
 Accuracy           	0.001
 CHECKFREQ          	2
 MAXCHECK           	10
 DAMPLIMIT          	0
 Unbalanced         	Continue 10
 Pattern            	1
 Demand Multiplier  	1.0
 Emitter Exponent   	0.5
 Quality            	None mg/L
 Diffusivity        	1
 Tolerance          	0.01

[COORDINATES]
;Node            	X-Coord           	Y-Coord
1               	-587.372          	7209.985          
2               	2745.962          	4654.919          
3               	7430.250          	7298.091          
4               	1773.576          	8181.942          
9               	2213.789          	8174.605          
12              	-2643.231         	6809.944          
13              	-1564.708         	6839.292          
14              	-2669.522         	5360.429          
15              	-2691.517         	5463.072          
16              	-4758.413         	7784.437          
17              	-5117.920         	7028.738          
18              	-5580.144         	6390.429          
19              	-4472.274         	6500.482          
20              	-4611.675         	5524.676          
21              	-4949.172         	5033.104          
23              	-3141.050         	8703.736          
24              	-3647.295         	8116.785          
25              	-4065.498         	7221.684          
26              	-2579.357         	7454.277          
27              	-1464.150         	7901.828          
28              	-1104.643         	8371.388          
29              	-1813.073         	8945.853          
30              	-4579.080         	8821.126          
32              	-4046.735         	5788.804          
33              	-3731.249         	5972.226          
34              	-3379.078         	6236.354          
35              	-3892.660         	4548.870          
36              	-3467.121         	4835.008          
37              	-2784.790         	4849.682          
38              	-1933.711         	5121.147          
7               	452.936           	8739.546          
8               	-603.576          	3941.221          
10              	-2024.338         	5323.771          
22              	-5929.068         	5240.725          
31              	-5936.405         	8556.998          
5               	-2496.329         	4258.443          
6               	4092.033          	8306.669          
11              	-1315.254         	7323.526          

[VERTICES]
;Link            	X-Coord           	Y-Coord
3               	455.213           	6842.878          
3               	-58.737           	5873.715          
3               	1527.166          	5741.557          
3               	528.634           	4038.179          
3               	1644.640          	3671.072          
3               	4375.918          	4008.811          
9               	-2283.723         	7103.420          
9               	-1858.184         	6501.795          
11              	-2357.092         	6134.950          
11              	-2944.043         	6421.089          
11              	-2349.755         	6567.827          
17              	-4780.424         	7755.090          
24              	-1176.035         	9116.945          

[LABELS]
;X-Coord             Y-Coord             Label & Anchor Node

[BACKDROP]
  DIMENSIONS  	0.000             	0.000             	10000.000         	10000.000         
 UNITS          	None
 FILE           	
 OFFSET         	0.00            	0.00            

[END]
