
[TITLE]

[JUNCTIONS]
;ID               	Elev      	Demand    	Pattern
J2                 	10.01     	10.00000  	          	
J3                 	10.37     	0.00000   	          	
J4                 	10.23     	0.00000   	          	
J5                 	10.89     	0.00000   	          	
J6                 	10.23     	0.00000   	          	
J7                 	10.28     	10.00000  	          	
J8                 	13.50     	0.00000   	          	
J9                 	13.30     	10.00000  	          	
J12                	17.77     	0.00000   	          	
J14                	17.86     	10.00000  	          	
J15                	17.27     	10.00000  	          	
J16                	17.86     	0.00000   	          	
J17                	13.99     	0.00000   	          	
J18                	13.92     	0.00000   	          	
J19                	17.86     	0.00000   	          	
J20                	18.52     	10.00000  	          	
J21                	9.34      	10.00000  	          	
J22                	13.35     	10.00000  	          	
J23                	12.60     	10.00000  	          	

[RESERVOIRS]
;ID               	Head      	Pattern
R1                 	30.37     	

[TANKS]
;ID                	Elevation 	InitLevel 	MinLevel  	MaxLevel  	Diameter  	MinVol    	VolCurve

[PIPES]
;ID                	Node1              	Node2              	Length             	Diameter           	Roughness          	MinorLoss          	Status
L1                 	J3                 	J4                 	50.77              	100.00             	110.0000           	0.00               	Open      	
L2                 	J4                 	J2                 	248.51             	100.00             	110.0000           	0.00               	Open      	
L3                 	J4                 	J5                 	213.57             	100.00             	110.0000           	0.00               	Open      	
L4                 	J5                 	J8                 	47.43              	100.00             	110.0000           	0.00               	Open      	
L5                 	J8                 	J17                	65.22              	100.00             	110.0000           	0.00               	Open      	
L6                 	J17                	J18                	29.25              	100.00             	110.0000           	0.00               	Open      	
L7                 	J18                	J12                	576.23             	100.00             	110.0000           	0.00               	Open      	
L9                 	J16                	J14                	6.60               	100.00             	110.0000           	0.00               	Open      	
L10                	J19                	J15                	76.31              	100.00             	110.0000           	0.00               	Open      	
L11                	J12                	J19                	216.07             	100.00             	110.0000           	0.00               	Open      	
L12                	J19                	J16                	1.96               	100.00             	110.0000           	0.00               	Open      	
L13                	J12                	J20                	145.95             	100.00             	110.0000           	0.00               	Open      	
L14                	J8                 	J9                 	240.99             	100.00             	110.0000           	0.00               	Open      	
L15                	J5                 	J6                 	165.12             	100.00             	110.0000           	0.00               	Open      	
L16                	J6                 	J7                 	40.16              	100.00             	110.0000           	0.00               	Open      	
L17                	J6                 	J21                	53.88              	100.00             	110.0000           	0.00               	Open      	
L18                	R1                 	J3                 	13.49              	100.00             	110.0000           	0.00               	Open      	
L19                	J18                	J22                	91.22              	100.00             	64.0000            	0.00               	Open      	
L20                	J17                	J23                	201.88             	100.00             	64.0000            	0.00               	Open      	

[PUMPS]
;ID              	Node1           	Node2           	Parameters

[VALVES]
;ID              	Node1           	Node2           	Diameter   	Type      	Setting   	MinorLoss

[TAGS]

[DEMANDS]
;Junction        	Demand      	Pattern         	Category

[STATUS]
;ID              	Status/Setting

[PATTERNS]
;ID              	Multipliers

[CURVES]
;ID              	X-Value                 Y-Value

[CONTROLS]

[RULES]

[ENERGY]
GLOBAL EFFICIENCY  	75
GLOBAL PRICE       	0
DEMAND CHARGE      	0

[EMITTERS]
;Junction        	Coefficient
J2                 	0.00      	
J3                 	0.00      	
J4                 	0.00      	
J5                 	0.00      	
J6                 	0.00      	
J7                 	0.00      	
J8                 	0.00      	
J9                 	0.00      	
J12                	0.00      	
J14                	0.00      	
J15                	0.00      	
J16                	0.00      	
J17                	0.00      	
J18                	0.00      	
J19                	0.00      	
J20                	0.00      	
J21                	0.00      	
J22                	0.00      	
J23                	0.00      	

[REACTIONS]
ORDER BULK            	1
ORDER TANK            	1
ORDER WALL            	1
GLOBAL BULK           	0
GLOBAL WALL           	0
LIMITING POTENTIAL    	0
ROUGHNESS CORRELATION 	0

[OPTIONS]
UNITS                 	CMD
HEADLOSS              	H-W
VISCOSITY             	1.0
DIFFUSIVITY           	1
SPECIFIC GRAVITY      	1.0
TRIALS                	40
ACCURACY              	0.001
UNBALANCED            	Stop 0
PATTERN               	1
DEMAND MULTIPLIER     	1.0
EMITTER EXPONENT      	0.5
TOLERANCE             	0.01

[REPORT]
PAGESIZE              	0
STATUS                	FULL
SUMMARY               	YES
ENERGY                	YES
NODES                 	ALL
LINKS                 	ALL

[TIMES]
DURATION              	0001:00
HYDRAULIC TIMESTEP    	01:00
QUALITY TIMESTEP      	00:05
RULE TIMESTEP         	01:00
PATTERN TIMESTEP      	01:00
PATTERN START         	00:00
REPORT TIMESTEP       	01:00
REPORT START          	00:00
START CLOCKTIME       	00:00
STATISTIC             	None

[COORDINATES]
;Node            	X-Coord         	Y-Coord
J2                 	218421.99          	2709684.76         	
J3                 	218187.27          	2709503.63         	
J4                 	218220.11          	2709542.35         	
J5                 	218422.68          	2709559.63         	
J6                 	218285.10          	2709470.45         	
J7                 	218256.75          	2709442.10         	
J8                 	218446.18          	2709519.53         	
J9                 	218348.01          	2709354.30         	
J12                	219044.54          	2709226.40         	
J14                	219117.83          	2709020.38         	
J15                	219185.58          	2709045.96         	
J16                	219113.33          	2709025.22         	
J17                	218509.42          	2709503.63         	
J18                	218536.90          	2709493.61         	
J19                	219112.24          	2709026.84         	
J20                	218992.67          	2709099.11         	
J21                	218246.28          	2709507.69         	
J22                	218566.24          	2709579.97         	
J23                	218446.12          	2709312.07         	
R1                 	218178.35          	2709493.52         	

[VERTICES]
;Link            	X-Coord         	Y-Coord
L2                 	218256.06          	2709578.99         	
L2                 	218313.62          	2709622.89         	
L3                 	218242.99          	2709540.36         	
L3                 	218323.88          	2709576.13         	
L3                 	218387.83          	2709573.20         	
L3                 	218407.88          	2709569.39         	
L4                 	218443.22          	2709532.41         	
L5                 	218488.33          	2709509.51         	
L7                 	218566.80          	2709484.96         	
L7                 	218620.90          	2709460.42         	
L7                 	218683.81          	2709428.27         	
L7                 	218727.02          	2709402.00         	
L7                 	218773.69          	2709370.89         	
L7                 	218793.04          	2709356.37         	
L7                 	218827.27          	2709339.78         	
L7                 	218849.73          	2709332.87         	
L7                 	218871.17          	2709319.39         	
L7                 	218914.38          	2709301.41         	
L7                 	218949.63          	2709284.82         	
L7                 	219018.42          	2709242.99         	
L10                	219123.85          	2709028.07         	
L10                	219133.88          	2709033.43         	
L10                	219147.53          	2709035.85         	
L10                	219162.05          	2709040.17         	
L10                	219176.57          	2709044.14         	
L11                	219059.04          	2709211.62         	
L11                	219064.92          	2709194.34         	
L11                	219072.87          	2709151.82         	
L11                	219080.30          	2709091.16         	
L11                	219086.17          	2709070.42         	
L11                	219095.85          	2709051.06         	
L13                	219034.15          	2709215.25         	
L13                	219016.87          	2709183.80         	
L13                	219004.08          	2709159.94         	
L13                	219005.81          	2709143.35         	
L13                	219006.15          	2709121.92         	
L13                	218995.44          	2709116.39         	
L13                	218994.74          	2709108.09         	
L14                	218432.16          	2709514.95         	
L14                	218424.82          	2709509.33         	
L14                	218415.31          	2709501.99         	
L14                	218402.69          	2709488.16         	
L14                	218379.36          	2709462.24         	
L14                	218365.71          	2709449.27         	
L14                	218351.88          	2709431.99         	
L14                	218339.95          	2709417.30         	
L14                	218368.47          	2709402.26         	
L14                	218374.69          	2709397.77         	
L14                	218365.88          	2709382.56         	
L14                	218359.14          	2709366.14         	
L15                	218384.20          	2709538.11         	
L15                	218337.36          	2709513.05         	
L15                	218322.32          	2709503.89         	
L15                	218303.14          	2709490.06         	
L16                	218273.41          	2709457.22         	
L16                	218262.52          	2709446.85         	
L17                	218252.84          	2709502.68         	
L19                	218550.52          	2709533.65         	
L20                	218495.55          	2709457.26         	
L20                	218474.12          	2709385.70         	
[END]

[QEPANET-JUNCTIONS]
;ID               	DeltaZ
J2                 	0.00      	
J3                 	0.00      	
J4                 	0.00      	
J5                 	0.00      	
J6                 	0.00      	
J7                 	0.00      	
J8                 	0.00      	
J9                 	0.00      	
J12                	0.00      	
J14                	0.00      	
J15                	0.00      	
J16                	0.00      	
J17                	0.00      	
J18                	0.00      	
J19                	0.00      	
J20                	0.00      	
J21                	0.00      	
J22                	0.00      	
J23                	0.00      	

[QEPANET-RESERVOIRS]
;ID               	DeltaZ             PressureHead
R1                 	0.00      	20.00     	

[QEPANET-TANKS]
;ID               	DeltaZ

[QEPANET-PIPES]
;ID               	Material
L1                 	Cast iron 	
L2                 	Cast iron 	
L3                 	Cast iron 	
L4                 	Cast iron 	
L5                 	Cast iron 	
L6                 	Cast iron 	
L7                 	Cast iron 	
L9                 	Cast iron 	
L10                	Cast iron 	
L11                	Cast iron 	
L12                	Cast iron 	
L13                	Cast iron 	
L14                	Cast iron 	
L15                	Cast iron 	
L16                	Cast iron 	
L17                	Cast iron 	
L18                	Cast iron 	
L19                	Cast iron 	
L20                	Cast iron 	

[QEPANET-VERTICES]
L2                 	10.13              	
L2                 	9.92               	
L3                 	10.40              	
L3                 	10.42              	
L3                 	10.40              	
L3                 	10.80              	
L4                 	11.94              	
L5                 	13.45              	
L7                 	14.23              	
L7                 	14.57              	
L7                 	14.84              	
L7                 	14.97              	
L7                 	13.34              	
L7                 	15.08              	
L7                 	15.68              	
L7                 	15.18              	
L7                 	16.19              	
L7                 	16.65              	
L7                 	16.73              	
L7                 	17.48              	
L10                	17.86              	
L10                	17.49              	
L10                	17.49              	
L10                	17.26              	
L10                	17.27              	
L11                	17.29              	
L11                	17.58              	
L11                	15.41              	
L11                	16.78              	
L11                	16.64              	
L11                	14.85              	
L13                	17.77              	
L13                	18.41              	
L13                	17.64              	
L13                	18.10              	
L13                	18.27              	
L13                	18.27              	
L13                	18.52              	
L14                	13.50              	
L14                	13.45              	
L14                	13.45              	
L14                	13.28              	
L14                	13.21              	
L14                	13.12              	
L14                	13.12              	
L14                	12.91              	
L14                	12.94              	
L14                	12.85              	
L14                	12.81              	
L14                	12.83              	
L15                	10.86              	
L15                	10.75              	
L15                	10.50              	
L15                	10.19              	
L16                	10.45              	
L16                	10.28              	
L17                	9.89               	
L19                	13.46              	
L20                	14.28              	
L20                	14.06              	

[QOPTIONS]
